10

C     -4.71797    2.64517    0.00016
C     -5.88274    1.87938    0.00008
H     -2.56465    2.61799    0.00016
H     -6.85361    2.36848    0.00012
H     -6.70940   -0.11089   -0.00005
C     -5.80177    0.48747   -0.00002
C     -3.47224    2.01961    0.00014
H     -2.42040    0.13858    0.00001
C     -4.55604   -0.13811   -0.00004
C     -3.39127    0.62768    0.00005
